.subckt sub 1+ 2- out
E1 out 0 Value = {V(1+)-V(2-)}
.ends sub